test/TEST190523/v_h14.csv
Bus, BasekV, Node1, Magnitude1, Angle1, pu1, Node2, Magnitude2, Angle2, pu2, Node3, Magnitude3, Angle3, pu3
"SOURCEBUS", 69, 1,    41810.6,   -0.1,    1.0495, 2,    41826.2, -120.1,    1.0499, 3,    41794.2,  119.9,    1.0491
"BUSMVMAI1", 12.8, 1,    7750.89,  -30.3,    1.0488, 2,    7757.28, -150.2,    1.0497, 3,    7744.03,   89.6,    1.0479
"BUSMVMAI136", 12.505, 1,     7750.9,  -30.3,    1.0735, 2,    7757.27, -150.2,    1.0744, 3,    7743.96,   89.6,    1.0726
"BUSMVMAI3", 12.505, 1,    7762.08,  -30.7,    1.0751, 2,    7748.06, -150.0,    1.0731, 3,    7682.61,   89.1,    1.0641
"BUSMVMAI2", 12.505, 1,    7762.11,  -30.7,    1.0751, 2,    7748.04, -150.0,    1.0731, 3,    7682.44,   89.1,    1.0641
"BUSMVMAI4", 12.505, 1,    7762.43,  -30.7,    1.0751, 2,    7747.78, -150.0,    1.0731, 3,    7680.71,   89.0,    1.0638
"BUSMVMAI46", 12.505, 1,    7762.07,  -30.7,    1.0751, 2,    7748.07, -150.0,    1.0731, 3,    7682.68,   89.1,    1.0641
"BUSMVMAI5", 12.505, 1,    7762.48,  -30.7,    1.0751, 2,    7747.29, -150.0,     1.073, 3,    7678.86,   89.0,    1.0636
"BUSMVMAI862", 12.505, 1,    7762.43,  -30.7,    1.0751, 0, 0, 0, 0, 0, 0, 0, 0
"BUSMVMAI6", 12.505, 1,    7762.48,  -30.7,    1.0751, 2,     7747.2, -150.0,     1.073, 3,    7678.52,   89.0,    1.0635
"BUSMVMAI859", 12.505, 3,    7678.84,   89.0,    1.0636, 0, 0, 0, 0, 0, 0, 0, 0
"BUSMVMAI860", 12.505, 3,    7678.86,   89.0,    1.0636, 0, 0, 0, 0, 0, 0, 0, 0
"BUSMVMAI7", 12.505, 1,    7762.29,  -30.7,    1.0751, 2,    7746.86, -150.0,     1.073, 3,    7677.32,   89.0,    1.0633
"BUSMVMAI8", 12.505, 1,    7763.26,  -30.7,    1.0752, 2,    7746.01, -150.0,    1.0729, 3,    7675.96,   89.0,    1.0632
"BUSMVMAI9", 12.505, 1,    7762.29,  -30.7,    1.0751, 2,    7746.86, -150.0,     1.073, 3,    7677.31,   89.0,    1.0633
"BUSMVMAI10", 12.505, 1,    7761.78,  -30.7,     1.075, 2,    7746.92, -150.0,     1.073, 3,    7676.98,   89.0,    1.0633
"BUSMVMAI56", 12.505, 1,    7762.03,  -30.7,    1.0751, 2,    7746.89, -150.0,     1.073, 3,    7677.15,   89.0,    1.0633
"BUSMVMAI861", 12.505, 3,    7678.78,   89.0,    1.0635, 0, 0, 0, 0, 0, 0, 0, 0
"BUSMVMAI12", 12.505, 1,    7764.05,  -30.7,    1.0754, 2,    7745.33, -150.0,    1.0728, 3,    7674.85,   89.0,     1.063
"BUSMVMAI51", 12.505, 1,    7763.26,  -30.7,    1.0752, 2,    7746.01, -150.0,    1.0729, 3,    7675.96,   89.0,    1.0632
"BUSMVMAI2171", 12.505, 1,    7763.26,  -30.7,    1.0752, 0, 0, 0, 0, 0, 0, 0, 0
"BUSMVMAI863", 12.505, 3,    7678.74,   89.0,    1.0635, 0, 0, 0, 0, 0, 0, 0, 0
"BUSMVMAI2165", 12.505, 3,    7677.31,   89.0,    1.0633, 0, 0, 0, 0, 0, 0, 0, 0
"BUSMVMAI694", 12.505, 1,    7762.29,  -30.7,    1.0751, 2,    7746.86, -150.0,     1.073, 3,    7677.31,   89.0,    1.0633
"BUSMVMAI122", 12.505, 1,    7761.75,  -30.7,     1.075, 2,    7746.92, -150.0,     1.073, 3,    7676.96,   89.0,    1.0633
"BUSMVMAI11", 12.505, 1,    7764.04,  -30.7,    1.0754, 2,    7745.32, -150.0,    1.0728, 3,    7674.85,   89.0,     1.063
"BUSMVMAI13", 12.505, 1,    7764.04,  -30.7,    1.0754, 2,    7745.31, -150.0,    1.0728, 3,    7674.87,   89.0,     1.063
"BUSMVMAI18", 12.505, 1,    7764.35,  -30.7,    1.0754, 2,    7745.08, -150.0,    1.0727, 3,    7674.42,   89.0,    1.0629
"BUSMVMAI14", 12.505, 1,    7764.02,  -30.7,    1.0753, 2,    7745.29, -150.0,    1.0728, 3,     7674.9,   89.0,     1.063
"BUSMVMAI15", 12.505, 1,       7764,  -30.7,    1.0753, 2,    7745.26, -150.0,    1.0728, 3,    7674.94,   89.0,     1.063
"BUSMVMAI16", 12.505, 1,    7763.99,  -30.7,    1.0753, 2,    7745.27, -150.0,    1.0728, 3,    7674.96,   89.0,     1.063
"BUSMVMAI2166", 12.505, 2,    7745.25, -150.0,    1.0727, 0, 0, 0, 0, 0, 0, 0, 0
"BUSMVMAI2172", 12.505, 1,    7762.42,  -30.7,    1.0751, 0, 0, 0, 0, 0, 0, 0, 0
"BUSMVMAI864", 12.505, 3,    7678.71,   89.0,    1.0635, 0, 0, 0, 0, 0, 0, 0, 0
"BUSMVMAI865", 12.505, 3,    7678.66,   89.0,    1.0635, 0, 0, 0, 0, 0, 0, 0, 0
"BUSMVMAI17", 12.505, 1,    7763.99,  -30.7,    1.0753, 2,    7745.27, -150.0,    1.0728, 3,    7674.96,   89.0,     1.063
"BUSMVMAI695", 12.505, 1,    7763.99,  -30.7,    1.0753, 2,    7745.27, -150.0,    1.0728, 3,    7674.97,   89.0,     1.063
"BUSMVMAI866", 12.505, 3,    7678.66,   89.0,    1.0635, 0, 0, 0, 0, 0, 0, 0, 0
"BUSMVMAI2176", 12.505, 3,    7678.66,   89.0,    1.0635, 0, 0, 0, 0, 0, 0, 0, 0
"BUSMVMAI2177", 12.505, 3,    7678.65,   89.0,    1.0635, 0, 0, 0, 0, 0, 0, 0, 0
"BUSMVMAI2178", 12.505, 3,    7678.63,   89.0,    1.0635, 0, 0, 0, 0, 0, 0, 0, 0
"BUSMVMAI19", 12.505, 1,    7764.92,  -30.7,    1.0755, 2,    7744.62, -150.0,    1.0727, 3,    7673.65,   89.0,    1.0628
"BUSMVMAI20", 12.505, 1,    7765.72,  -30.7,    1.0756, 2,    7743.98, -150.0,    1.0726, 3,    7672.57,   89.0,    1.0627
"BUSMVMAI53", 12.505, 1,    7764.92,  -30.7,    1.0755, 2,    7744.62, -150.0,    1.0727, 3,    7673.65,   89.0,    1.0628
"BUSMVMAI21", 12.505, 1,    7766.56,  -30.7,    1.0757, 2,     7743.3, -150.0,    1.0725, 3,    7671.44,   89.0,    1.0625
"BUSMVMAI22", 12.505, 1,    7767.54,  -30.7,    1.0758, 2,    7742.51, -150.0,    1.0724, 3,    7670.12,   88.9,    1.0623
"BUSMVMAI23", 12.505, 1,    7766.56,  -30.7,    1.0757, 2,     7743.3, -150.0,    1.0725, 3,    7671.44,   89.0,    1.0625
"BUSMVMAI25", 12.505, 1,    7768.58,  -30.7,     1.076, 2,    7741.65, -150.0,    1.0723, 3,    7668.75,   88.9,    1.0622
"BUSMVMAI52", 12.505, 1,    7767.54,  -30.7,    1.0758, 2,    7742.51, -150.0,    1.0724, 3,    7670.12,   88.9,    1.0623
"BUSMVMAI54", 12.505, 1,    7767.54,  -30.7,    1.0758, 2,    7742.51, -150.0,    1.0724, 3,    7670.12,   88.9,    1.0623
"BUSMVMAI55", 12.505, 1,    7767.54,  -30.7,    1.0758, 2,    7742.51, -150.0,    1.0724, 3,    7670.12,   88.9,    1.0623
"BUSMVMAI696", 12.505, 1,    7766.56,  -30.7,    1.0757, 2,     7743.3, -150.0,    1.0725, 3,    7671.44,   89.0,    1.0625
"BUSMVMAI24", 12.505, 1,    7768.68,  -30.7,     1.076, 2,    7741.57, -150.0,    1.0722, 3,    7668.62,   88.9,    1.0621
"BUSMVMAI26", 12.505, 1,    7769.72,  -30.7,    1.0761, 2,    7740.72, -149.9,    1.0721, 3,    7667.25,   88.9,    1.0619
"BUSMVMAI49", 12.505, 1,    7768.58,  -30.7,     1.076, 2,    7741.65, -150.0,    1.0723, 3,    7668.75,   88.9,    1.0622
"BUSMVMAI50", 12.505, 1,    7768.58,  -30.7,     1.076, 2,    7741.65, -150.0,    1.0723, 3,    7668.75,   88.9,    1.0622
"BUSMVMAI27", 12.505, 1,    7769.71,  -30.7,    1.0761, 2,    7740.73, -149.9,    1.0721, 3,    7667.24,   88.9,    1.0619
"BUSMVMAI28", 12.505, 1,    7770.53,  -30.7,    1.0763, 2,    7740.06, -149.9,     1.072, 3,    7666.21,   88.9,    1.0618
"BUSMVMAI29", 12.505, 1,     7769.7,  -30.7,    1.0761, 2,    7740.74, -149.9,    1.0721, 3,    7667.23,   88.9,    1.0619
"BUSMVMAI31", 12.505, 1,    7771.46,  -30.7,    1.0764, 2,    7739.29, -149.9,    1.0719, 3,    7665.01,   88.9,    1.0616
"BUSMVMAI30", 12.505, 1,    7769.67,  -30.7,    1.0761, 2,    7740.75, -149.9,    1.0721, 3,    7667.22,   88.9,    1.0619
"BUSMVMAI34", 12.505, 1,    7769.66,  -30.7,    1.0761, 2,    7740.76, -149.9,    1.0721, 3,    7667.21,   88.9,    1.0619
"BUSMVMAI867", 12.505, 1,    7771.42,  -30.7,    1.0764, 0, 0, 0, 0, 0, 0, 0, 0
"BUSMVMAI43", 12.505, 1,    7771.49,  -30.7,    1.0764, 2,    7739.28, -149.9,    1.0719, 3,    7664.98,   88.9,    1.0616
"BUSMVMAI871", 12.505, 2,    7739.29, -149.9,    1.0719, 0, 0, 0, 0, 0, 0, 0, 0
"BUSMVMAI33", 12.505, 1,    7771.76,  -30.7,    1.0764, 2,    7739.05, -149.9,    1.0719, 3,    7664.64,   88.9,    1.0616
"BUSMVMAI32", 12.505, 1,    7772.57,  -30.7,    1.0765, 2,    7738.38, -149.9,    1.0718, 3,    7663.64,   88.9,    1.0614
"BUSMVMAI37", 12.505, 1,    7773.66,  -30.7,    1.0767, 2,    7737.47, -149.9,    1.0717, 3,    7662.29,   88.9,    1.0613
"BUSMVMAI44", 12.505, 1,    7771.51,  -30.7,    1.0764, 2,    7739.26, -149.9,    1.0719, 3,    7664.95,   88.9,    1.0616
"BUSMVMAI35", 12.505, 1,    7769.66,  -30.7,    1.0761, 2,    7740.76, -149.9,    1.0721, 3,    7667.21,   88.9,    1.0619
"BUSMVMAI36", 12.505, 1,    7769.66,  -30.7,    1.0761, 2,    7740.76, -149.9,    1.0721, 3,     7667.2,   88.9,    1.0619
"BUSMVMAI869", 12.505, 1,    7771.42,  -30.7,    1.0764, 0, 0, 0, 0, 0, 0, 0, 0
"BUSMVMAI38", 12.505, 1,    7774.52,  -30.7,    1.0768, 2,    7736.76, -149.9,    1.0716, 3,    7661.23,   88.8,    1.0611
"BUSMVMAI2181", 12.505, 1,    7773.65,  -30.7,    1.0767, 0, 0, 0, 0, 0, 0, 0, 0
"BUSMVMAI868", 12.505, 1,    7771.35,  -30.7,    1.0764, 0, 0, 0, 0, 0, 0, 0, 0
"BUSMVMAI870", 12.505, 1,    7771.27,  -30.7,    1.0764, 0, 0, 0, 0, 0, 0, 0, 0
"BUSMVMAI39", 12.505, 1,    7774.55,  -30.7,    1.0768, 2,    7736.74, -149.9,    1.0716, 3,    7661.19,   88.8,    1.0611
"BUSMVMAI40", 12.505, 1,    7775.34,  -30.7,    1.0769, 2,    7736.07, -149.9,    1.0715, 3,    7660.22,   88.8,     1.061
"BUSMVMAI697", 12.505, 1,    7774.57,  -30.7,    1.0768, 2,    7736.76, -149.9,    1.0716, 3,    7661.06,   88.8,    1.0611
"BUSMVMAI41", 12.505, 1,     7776.3,  -30.7,    1.0771, 2,    7735.28, -149.9,    1.0714, 3,    7659.03,   88.8,    1.0608
"BUSMVMAI42", 12.505, 1,    7776.33,  -30.7,    1.0771, 2,    7735.26, -149.9,    1.0714, 3,       7659,   88.8,    1.0608
"BUSMVMAI48", 12.505, 1,    7777.06,  -30.7,    1.0772, 2,    7734.65, -149.9,    1.0713, 3,    7658.08,   88.8,    1.0607
"BUSMVMAI303", 12.505, 1,    7776.68,  -30.7,    1.0771, 2,    7734.97, -149.9,    1.0713, 3,    7658.56,   88.8,    1.0607
"BUSMVMAI45", 12.505, 1,    7776.34,  -30.7,    1.0771, 2,    7735.26, -149.9,    1.0714, 3,    7658.98,   88.8,    1.0608
"BUSMVMAI701", 12.505, 1,    7776.35,  -30.7,    1.0771, 2,    7735.26, -149.9,    1.0714, 3,    7658.95,   88.8,    1.0608
"BUSMVMAI47", 12.505, 1,    7761.93,  -30.6,    1.0751, 2,    7748.19, -150.0,    1.0732, 3,    7683.45,   89.1,    1.0642
"BUSMVMAI179", 12.505, 1,       7762,  -30.7,    1.0751, 2,    7748.13, -150.0,    1.0731, 3,    7683.07,   89.1,    1.0641
"BUSMVMAI160", 12.505, 1,    7761.59,  -30.6,     1.075, 2,    7748.46, -150.0,    1.0732, 3,    7685.27,   89.1,    1.0644
"BUSMVMAI1103", 12.505, 1,    7777.01,  -30.7,    1.0771, 0, 0, 0, 0, 0, 0, 0, 0
"BUSMVMAI259", 12.505, 1,    7777.47,  -30.7,    1.0772, 2,     7734.3, -149.9,    1.0712, 3,    7657.64,   88.8,    1.0606
"BUSMVMAI304", 12.505, 1,    7777.06,  -30.7,    1.0772, 2,    7734.65, -149.9,    1.0713, 3,    7658.08,   88.8,    1.0607
"BUSMVMAI702", 12.505, 1,    7768.58,  -30.7,     1.076, 2,    7741.65, -150.0,    1.0723, 3,    7668.75,   88.9,    1.0622
"BUSMVMAI58", 12.505, 1,    7761.42,  -30.7,     1.075, 2,    7746.96, -150.0,     1.073, 3,    7676.75,   89.0,    1.0633
"BUSMVMAI57", 12.505, 1,    7760.21,  -30.7,    1.0748, 2,     7747.1, -150.0,     1.073, 3,    7675.96,   89.0,    1.0632
"BUSMVMAI60", 12.505, 1,    7759.71,  -30.7,    1.0748, 2,    7747.16, -150.0,     1.073, 3,    7675.64,   89.0,    1.0631
"BUSMVMAI703", 12.505, 1,    7760.21,  -30.7,    1.0748, 2,     7747.1, -150.0,     1.073, 3,    7675.96,   89.0,    1.0632
"BUSMVMAI123", 12.505, 1,    7761.72,  -30.7,     1.075, 2,    7746.93, -150.0,     1.073, 3,    7676.95,   89.0,    1.0633
"BUSMVMAI59", 12.505, 1,       7759,  -30.7,    1.0747, 2,    7747.26, -150.0,     1.073, 3,     7675.3,   89.0,    1.0631
"BUSMVMAI61", 12.505, 1,    7757.81,  -30.7,    1.0745, 2,    7747.43, -150.0,    1.0731, 3,    7674.73,   89.0,     1.063
"BUSMVMAI63", 12.505, 1,    7759.74,  -30.7,    1.0748, 2,    7747.14, -150.0,     1.073, 3,    7675.58,   89.0,    1.0631
"BUSMVMAI874", 12.505, 3,    7675.64,   89.0,    1.0631, 0, 0, 0, 0, 0, 0, 0, 0
"BUSMVMAI62", 12.505, 1,    7756.68,  -30.7,    1.0743, 2,    7747.52, -150.0,    1.0731, 3,    7674.17,   89.0,    1.0629
"BUSMVMAI64", 12.505, 1,    7755.46,  -30.7,    1.0742, 2,    7747.65, -150.0,    1.0731, 3,    7673.76,   89.0,    1.0628
"BUSMVMAI942", 12.505, 3,    7674.17,   89.0,    1.0629, 0, 0, 0, 0, 0, 0, 0, 0
"BUSMVMAI873", 12.505, 3,    7674.16,   89.0,    1.0629, 0, 0, 0, 0, 0, 0, 0, 0
"BUSMVMAI872", 12.505, 3,    7673.94,   89.0,    1.0629, 0, 0, 0, 0, 0, 0, 0, 0
"BUSMVMAI880", 12.505, 3,    7673.93,   89.0,    1.0629, 0, 0, 0, 0, 0, 0, 0, 0
"BUSMVMAI945", 12.505, 3,    7675.58,   89.0,    1.0631, 0, 0, 0, 0, 0, 0, 0, 0
"BUSMVMAI65", 12.505, 1,     7754.2,  -30.7,     1.074, 2,    7747.74, -150.0,    1.0731, 3,    7673.32,   89.0,    1.0628
"BUSMVMAI66", 12.505, 1,    7752.93,  -30.7,    1.0738, 2,    7747.83, -150.0,    1.0731, 3,    7672.87,   89.0,    1.0627
"BUSMVMAI67", 12.505, 1,    7751.56,  -30.7,    1.0736, 2,    7747.93, -150.0,    1.0731, 3,    7672.38,   89.0,    1.0627
"BUSMVMAI878", 12.505, 1,    7751.54,  -30.7,    1.0736, 0, 0, 0, 0, 0, 0, 0, 0
"BUSMVMAI68", 12.505, 1,    7750.52,  -30.7,    1.0735, 2,       7748, -150.0,    1.0731, 3,    7672.02,   89.0,    1.0626
"BUSMVMAI706", 12.505, 1,    7751.57,  -30.7,    1.0736, 2,    7747.93, -150.0,    1.0731, 3,    7672.38,   89.0,    1.0627
"BUSMVMAI876", 12.505, 3,    7675.57,   89.0,    1.0631, 0, 0, 0, 0, 0, 0, 0, 0
"BUSMVMAI875", 12.505, 3,    7675.37,   89.0,    1.0631, 0, 0, 0, 0, 0, 0, 0, 0
"BUSMVMAI877", 12.505, 3,     7675.3,   89.0,    1.0631, 0, 0, 0, 0, 0, 0, 0, 0
"BUSMVMAI883", 12.505, 3,    7675.13,   89.0,     1.063, 0, 0, 0, 0, 0, 0, 0, 0
"BUSMVMAI884", 12.505, 3,     7675.3,   89.0,    1.0631, 0, 0, 0, 0, 0, 0, 0, 0
"BUSMVMAI886", 12.505, 3,     7675.3,   89.0,    1.0631, 0, 0, 0, 0, 0, 0, 0, 0
"BUSMVMAI885", 12.505, 1,    7751.48,  -30.7,    1.0736, 0, 0, 0, 0, 0, 0, 0, 0
"BUSMVMAI879", 12.505, 3,    7673.62,   89.0,    1.0628, 0, 0, 0, 0, 0, 0, 0, 0
"BUSMVMAI881", 12.505, 3,    7673.63,   89.0,    1.0628, 0, 0, 0, 0, 0, 0, 0, 0
"BUSMVMAI888", 12.505, 3,    7673.58,   89.0,    1.0628, 0, 0, 0, 0, 0, 0, 0, 0
"BUSMVMAI882", 12.505, 3,    7673.64,   89.0,    1.0628, 0, 0, 0, 0, 0, 0, 0, 0
"BUSMVMAI944", 12.505, 3,    7673.64,   89.0,    1.0628, 0, 0, 0, 0, 0, 0, 0, 0
"BUSMVMAI889", 12.505, 3,    7674.98,   89.0,     1.063, 0, 0, 0, 0, 0, 0, 0, 0
"BUSMVMAI2183", 12.505, 3,    7675.29,   89.0,    1.0631, 0, 0, 0, 0, 0, 0, 0, 0
"BUSMVMAI2184", 12.505, 3,    7675.29,   89.0,    1.0631, 0, 0, 0, 0, 0, 0, 0, 0
"BUSMVMAI71", 12.505, 1,    7749.53,  -30.7,    1.0733, 2,    7748.03, -150.0,    1.0731, 3,    7671.66,   89.0,    1.0626
"BUSMVMAI2182", 12.505, 1,    7751.48,  -30.7,    1.0736, 0, 0, 0, 0, 0, 0, 0, 0
"BUSMVMAI2185", 12.505, 1,    7751.49,  -30.7,    1.0736, 0, 0, 0, 0, 0, 0, 0, 0
"BUSMVMAI2186", 12.505, 1,    7751.44,  -30.7,    1.0736, 0, 0, 0, 0, 0, 0, 0, 0
"BUSMVMAI887", 12.505, 3,    7675.29,   89.0,    1.0631, 0, 0, 0, 0, 0, 0, 0, 0
"BUSMVMAI892", 12.505, 3,    7675.29,   89.0,    1.0631, 0, 0, 0, 0, 0, 0, 0, 0
"BUSMVMAI897", 12.505, 3,    7673.52,   89.0,    1.0628, 0, 0, 0, 0, 0, 0, 0, 0
"BUSMVMAI890", 12.505, 3,    7674.85,   89.0,     1.063, 0, 0, 0, 0, 0, 0, 0, 0
"BUSMVMAI891", 12.505, 3,    7674.76,   89.0,     1.063, 0, 0, 0, 0, 0, 0, 0, 0
"BUSMVMAI896", 12.505, 3,    7674.72,   89.0,     1.063, 0, 0, 0, 0, 0, 0, 0, 0
"BUSMVMAI893", 12.505, 3,    7675.29,   89.0,    1.0631, 0, 0, 0, 0, 0, 0, 0, 0
"BUSMVMAI894", 12.505, 3,    7675.28,   89.0,    1.0631, 0, 0, 0, 0, 0, 0, 0, 0
"BUSMVMAI895", 12.505, 3,    7675.28,   89.0,    1.0631, 0, 0, 0, 0, 0, 0, 0, 0
"BUSMVMAI898", 12.505, 3,    7675.27,   89.0,    1.0631, 0, 0, 0, 0, 0, 0, 0, 0
"BUSMVMAI70", 12.505, 1,    7751.57,  -30.7,    1.0736, 2,    7747.93, -150.0,    1.0731, 3,    7672.34,   89.0,    1.0627
"BUSMVMAI69", 12.505, 1,    7751.57,  -30.7,    1.0736, 2,    7747.93, -150.0,    1.0731, 3,    7672.34,   89.0,    1.0627
"BUSMVMAI708", 12.505, 1,    7751.57,  -30.7,    1.0736, 2,    7747.93, -150.0,    1.0731, 3,    7672.35,   89.0,    1.0627
"BUSMVMAI72", 12.505, 1,    7748.24,  -30.8,    1.0732, 2,    7748.08, -150.0,    1.0731, 3,     7671.2,   89.0,    1.0625
"BUSMVMAI73", 12.505, 1,    7746.97,  -30.8,     1.073, 2,    7748.15, -150.0,    1.0732, 3,    7670.88,   89.0,    1.0624
"BUSMVMAI134", 12.505, 1,    7748.24,  -30.8,    1.0732, 2,    7748.08, -150.0,    1.0731, 3,     7671.2,   89.0,    1.0625
"BUSMVMAI900", 12.505, 3,    7673.47,   89.0,    1.0628, 0, 0, 0, 0, 0, 0, 0, 0
"BUSMVMAI904", 12.505, 3,    7675.27,   89.0,    1.0631, 0, 0, 0, 0, 0, 0, 0, 0
"BUSMVMAI75", 12.505, 1,    7746.36,  -30.8,    1.0729, 2,    7748.21, -150.0,    1.0732, 3,    7670.68,   89.0,    1.0624
"BUSMVMAI718", 12.505, 1,    7746.97,  -30.8,     1.073, 2,    7748.15, -150.0,    1.0732, 3,    7670.88,   89.0,    1.0624
"BUSMVMAI899", 12.505, 3,    7673.47,   89.0,    1.0628, 0, 0, 0, 0, 0, 0, 0, 0
"BUSMVMAI902", 12.505, 3,    7673.45,   89.0,    1.0628, 0, 0, 0, 0, 0, 0, 0, 0
"BUSMVMAI901", 12.505, 3,    7673.43,   89.0,    1.0628, 0, 0, 0, 0, 0, 0, 0, 0
"BUSMVMAI903", 12.505, 3,    7673.39,   89.0,    1.0628, 0, 0, 0, 0, 0, 0, 0, 0
"BUSMVMAI905", 12.505, 3,    7673.36,   89.0,    1.0628, 0, 0, 0, 0, 0, 0, 0, 0
"BUSMVMAI907", 12.505, 3,    7673.39,   89.0,    1.0628, 0, 0, 0, 0, 0, 0, 0, 0
"BUSMVMAI906", 12.505, 3,    7673.35,   89.0,    1.0628, 0, 0, 0, 0, 0, 0, 0, 0
"BUSMVMAI946", 12.505, 3,    7673.35,   89.0,    1.0628, 0, 0, 0, 0, 0, 0, 0, 0
"BUSMVMAI74", 12.505, 1,    7746.36,  -30.8,    1.0729, 2,    7748.21, -150.0,    1.0732, 3,    7670.68,   89.0,    1.0624
"BUSMVMAI76", 12.505, 1,    7746.26,  -30.8,    1.0729, 2,    7748.28, -150.0,    1.0732, 3,    7670.64,   89.0,    1.0624
"BUSMVMAI77", 12.505, 1,    7746.01,  -30.8,    1.0729, 2,     7748.2, -150.0,    1.0732, 3,    7670.58,   89.0,    1.0624
"BUSMVMAI79", 12.505, 1,    7746.25,  -30.8,    1.0729, 2,    7748.29, -150.0,    1.0732, 3,    7670.63,   89.0,    1.0624
"BUSMVMAI81", 12.505, 1,       7746,  -30.8,    1.0729, 2,    7748.12, -150.0,    1.0731, 3,     7670.6,   89.0,    1.0624
"BUSMVMAI91", 12.505, 1,     7745.1,  -30.8,    1.0727, 2,    7748.24, -150.0,    1.0732, 3,    7670.29,   89.0,    1.0624
"BUSMVMAI78", 12.505, 1,    7746.07,  -30.8,    1.0729, 2,     7748.4, -150.0,    1.0732, 3,    7670.55,   89.0,    1.0624
"BUSMVMAI80", 12.505, 1,     7745.9,  -30.8,    1.0728, 2,    7748.52, -150.0,    1.0732, 3,    7670.46,   89.0,    1.0624
"BUSMVMAI908", 12.505, 1,    7745.78,  -30.8,    1.0728, 0, 0, 0, 0, 0, 0, 0, 0
"BUSMVMAI89", 12.505, 1,    7745.86,  -30.8,    1.0728, 2,    7748.55, -150.0,    1.0732, 3,    7670.42,   89.0,    1.0624
"BUSMVMAI949", 12.505, 3,    7673.39,   89.0,    1.0628, 0, 0, 0, 0, 0, 0, 0, 0
"BUSMVMAI82", 12.505, 1,       7746,  -30.8,    1.0729, 2,    7748.06, -150.0,    1.0731, 3,    7670.61,   89.0,    1.0624
"BUSMVMAI83", 12.505, 1,    7746.01,  -30.8,    1.0729, 2,    7748.07, -150.0,    1.0731, 3,    7670.59,   89.0,    1.0624
"BUSMVMAI86", 12.505, 1,    7746.03,  -30.8,    1.0729, 2,    7748.07, -150.0,    1.0731, 3,    7670.56,   89.0,    1.0624
"BUSMVMAI85", 12.505, 1,    7746.95,  -30.8,     1.073, 2,    7748.09, -150.0,    1.0731, 3,    7670.93,   89.0,    1.0625
"BUSMVMAI84", 12.505, 1,    7746.88,  -30.8,     1.073, 2,    7748.06, -150.0,    1.0731, 3,    7670.99,   89.0,    1.0625
"BUSMVMAI93", 12.505, 1,    7746.84,  -30.8,     1.073, 2,    7748.05, -150.0,    1.0731, 3,    7671.02,   89.0,    1.0625
"BUSMVMAI2198", 12.505, 2,    7748.06, -150.0,    1.0731, 0, 0, 0, 0, 0, 0, 0, 0
"BUSMVMAI709", 12.505, 1,    7746.97,  -30.8,     1.073, 2,    7748.15, -150.0,    1.0732, 3,    7670.88,   89.0,    1.0624
"BUSMVMAI88", 12.505, 1,    7746.05,  -30.8,    1.0729, 2,    7748.08, -150.0,    1.0731, 3,    7670.53,   89.0,    1.0624
"BUSMVMAI87", 12.505, 1,    7746.07,  -30.8,    1.0729, 2,    7748.08, -150.0,    1.0731, 3,     7670.5,   89.0,    1.0624
"BUSMVMAI99", 12.505, 1,    7746.08,  -30.8,    1.0729, 2,    7748.09, -150.0,    1.0731, 3,     7670.5,   89.0,    1.0624
"BUSMVMAI722", 12.505, 1,    7746.07,  -30.8,    1.0729, 2,    7748.08, -150.0,    1.0731, 3,     7670.5,   89.0,    1.0624
"BUSMVMAI909", 12.505, 1,    7745.68,  -30.8,    1.0728, 0, 0, 0, 0, 0, 0, 0, 0
"BUSMVMAI90", 12.505, 1,    7745.85,  -30.8,    1.0728, 2,    7748.55, -150.0,    1.0732, 3,    7670.39,   89.0,    1.0624
"BUSMVMAI102", 12.505, 1,    7745.85,  -30.8,    1.0728, 2,    7748.55, -150.0,    1.0732, 3,    7670.35,   89.0,    1.0624
"BUSMVMAI92", 12.505, 1,    7744.32,  -30.8,    1.0726, 2,    7748.27, -150.0,    1.0732, 3,    7670.04,   89.0,    1.0623
"BUSMVMAI132", 12.505, 1,     7745.1,  -30.8,    1.0727, 2,    7748.24, -150.0,    1.0732, 3,    7670.29,   89.0,    1.0624
"BUSMVMAI98", 12.505, 1,    7744.32,  -30.8,    1.0726, 2,    7748.27, -150.0,    1.0732, 3,    7670.04,   89.0,    1.0623
"BUSMVMAI100", 12.505, 1,    7743.32,  -30.8,    1.0725, 2,     7748.4, -150.0,    1.0732, 3,    7669.69,   89.0,    1.0623
"BUSMVMAI723", 12.505, 1,    7744.32,  -30.8,    1.0726, 2,    7748.26, -150.0,    1.0732, 3,    7670.04,   89.0,    1.0623
"BUSMVMAI96", 12.505, 1,     7746.8,  -30.8,     1.073, 2,    7748.03, -150.0,    1.0731, 3,    7671.05,   89.0,    1.0625
"BUSMVMAI916", 12.505, 1,    7746.83,  -30.8,     1.073, 0, 0, 0, 0, 0, 0, 0, 0
"BUSMVMAI95", 12.505, 1,    7744.32,  -30.8,    1.0726, 2,     7748.2, -150.0,    1.0732, 3,    7670.05,   89.0,    1.0623
"BUSMVMAI94", 12.505, 1,    7744.29,  -30.8,    1.0726, 2,    7748.14, -150.0,    1.0731, 3,    7670.08,   89.0,    1.0623
"BUSMVMAI112", 12.505, 1,    7744.29,  -30.8,    1.0726, 2,    7748.14, -150.0,    1.0732, 3,    7670.07,   89.0,    1.0623
"BUSMVMAI126", 12.505, 1,    7744.32,  -30.8,    1.0726, 2,    7748.21, -150.0,    1.0732, 3,    7670.05,   89.0,    1.0623
"BUSMVMAI97", 12.505, 1,    7746.75,  -30.8,     1.073, 2,    7748.01, -150.0,    1.0731, 3,     7671.1,   89.0,    1.0625
"BUSMVMAI711", 12.505, 1,     7746.8,  -30.8,     1.073, 2,    7748.03, -150.0,    1.0731, 3,    7671.05,   89.0,    1.0625
"BUSMVMAI915", 12.505, 1,    7746.75,  -30.8,     1.073, 0, 0, 0, 0, 0, 0, 0, 0
...
"BUSLVMAI1", 0.20785, 1,    127.585,   89.0,    1.0632, 2,      127.6,  -91.0,    1.0633, 0, 0, 0, 0
"BUSLVMAI2", 0.20785, 1,    127.827,   89.2,    1.0652, 2,     127.84,  -90.8,    1.0653, 0, 0, 0, 0
"BUSLVMAI3", 0.20785, 1,    127.559,   89.0,     1.063, 2,    127.575,  -91.0,    1.0631, 0, 0, 0, 0
"BUSLVMAI4", 0.20785, 1,    128.683,  -30.9,    1.0724, 2,    128.777,  149.1,    1.0731, 0, 0, 0, 0
"BUSLVMAI5", 0.20785, 1,    128.312, -150.0,    1.0693, 2,    128.361,   30.0,    1.0697, 0, 0, 0, 0
"BUSLVMAI6", 0.20785, 1,    127.393,   88.9,    1.0616, 2,    127.409,  -91.1,    1.0617, 0, 0, 0, 0
"BUSLVMAI7", 0.20785, 1,     127.59,   89.0,    1.0632, 2,    127.604,  -91.0,    1.0634, 0, 0, 0, 0
"BUSLVMAI8", 0.20785, 1,    127.244,   88.9,    1.0604, 2,    127.263,  -91.1,    1.0605, 0, 0, 0, 0
"BUSLVMAI9", 0.20785, 1,    126.934,   88.7,    1.0578, 2,    126.947,  -91.3,    1.0579, 0, 0, 0, 0
"BUSLVMAI10", 0.20785, 1,    127.002,   88.7,    1.0584, 2,    127.015,  -91.3,    1.0585, 0, 0, 0, 0
"BUSLVMAI11", 0.20785, 1,    128.675, -150.0,    1.0723, 2,    128.688,   30.0,    1.0724, 0, 0, 0, 0
"BUSLVMAI12", 0.20785, 1,     128.65, -150.0,    1.0721, 2,    128.666,   30.0,    1.0722, 0, 0, 0, 0
"BUSLVMAI13", 0.20785, 1,    128.956,  -30.7,    1.0746, 2,    128.972,  149.3,    1.0748, 0, 0, 0, 0
"BUSLVMAI14", 0.20785, 1,    129.127,  -30.7,    1.0761, 2,    129.142,  149.3,    1.0762, 0, 0, 0, 0
"BUSLVMAI15", 0.20785, 1,    129.077,  -30.6,    1.0756, 2,     129.09,  149.4,    1.0757, 0, 0, 0, 0
"BUSLVMAI16", 0.20785, 1,    127.563,   89.0,     1.063, 2,    127.581,  -91.0,    1.0632, 0, 0, 0, 0
"BUSLVMAI17", 0.20785, 1,    126.197,   88.5,    1.0516, 2,    126.232,  -91.5,    1.0519, 0, 0, 0, 0
"BUSLVMAI18", 0.20785, 1,    127.464,   89.0,    1.0622, 2,    127.479,  -91.0,    1.0623, 0, 0, 0, 0
"BUSLVMAI19", 0.20785, 1,    127.709,   89.1,    1.0642, 2,    127.723,  -90.9,    1.0644, 0, 0, 0, 0
"BUSLVMAI20", 0.20785, 1,     128.12, -150.1,    1.0677, 2,    128.163,   29.9,     1.068, 0, 0, 0, 0
"BUSLVMAI21", 0.20785, 1,    127.585,   89.0,    1.0632, 2,    127.601,  -91.0,    1.0633, 0, 0, 0, 0
"BUSLVMAI22", 0.20785, 1,      128.9,  -30.7,    1.0742, 2,    128.985,  149.3,    1.0749, 0, 0, 0, 0
"BUSLVMAI23", 0.20785, 1,    127.554,   89.0,    1.0629, 2,    127.569,  -91.0,    1.0631, 0, 0, 0, 0
"BUSLVMAI24", 0.20785, 1,    127.561,   89.0,     1.063, 2,    127.576,  -91.0,    1.0631, 0, 0, 0, 0
"BUSLVMAI25", 0.20785, 1,    127.509,   89.0,    1.0626, 2,    127.524,  -91.0,    1.0627, 0, 0, 0, 0
"BUSLVMAI26", 0.20785, 1,    128.621, -150.0,    1.0718, 2,    128.637,   30.0,     1.072, 0, 0, 0, 0
"BUSLVMAI27", 0.20785, 1,    128.694, -150.0,    1.0724, 2,     128.71,   30.0,    1.0726, 0, 0, 0, 0
"BUSLVMAI28", 0.20785, 1,    127.464,   89.0,    1.0622, 2,    127.479,  -91.0,    1.0623, 0, 0, 0, 0
"BUSLVMAI29", 0.20785, 1,     126.86,   88.6,    1.0572, 2,    126.875,  -91.4,    1.0573, 0, 0, 0, 0
"BUSLVMAI30", 0.20785, 1,    128.597, -149.9,    1.0716, 2,    128.612,   30.1,    1.0718, 0, 0, 0, 0
"BUSLVMAI31", 0.20785, 1,    127.561,   89.0,     1.063, 2,    127.577,  -91.0,    1.0631, 0, 0, 0, 0
"BUSLVMAI32", 0.20785, 1,    128.647,  -30.8,    1.0721, 2,     128.66,  149.2,    1.0722, 0, 0, 0, 0
"BUSLVMAI33", 0.20785, 1,    127.427,   88.9,    1.0619, 2,     127.44,  -91.1,     1.062, 0, 0, 0, 0
"BUSLVMAI34", 0.20785, 1,    125.479,   88.5,    1.0457, 2,    125.597,  -91.5,    1.0466, 0, 0, 0, 0
"BUSLVMAI35", 0.20785, 1,    127.504,   89.0,    1.0625, 2,    127.518,  -91.0,    1.0626, 0, 0, 0, 0
"BUSLVMAI36", 0.20785, 1,    127.502,   89.0,    1.0625, 2,    127.516,  -91.0,    1.0626, 0, 0, 0, 0
"BUSLVMAI37", 0.20785, 1,    127.498,   89.0,    1.0625, 2,    127.513,  -91.0,    1.0626, 0, 0, 0, 0
"BUSLVMAI38", 0.20785, 1,    125.678, -150.7,    1.0473, 2,    125.696,   29.3,    1.0475, 0, 0, 0, 0
"BUSLVMAI39", 0.20785, 1,    128.671, -150.0,    1.0723, 2,    128.685,   30.0,    1.0724, 0, 0, 0, 0
"BUSLVMAI40", 0.20785, 1,    127.162,   88.8,    1.0597, 2,    127.203,  -91.2,      1.06, 0, 0, 0, 0
"BUSLVMAI41", 0.20785, 1,    128.703,  -30.8,    1.0725, 2,    128.719,  149.2,    1.0727, 0, 0, 0, 0
"BUSLVMAI42", 0.20785, 1,    128.762,  -30.7,     1.073, 2,    128.778,  149.2,    1.0732, 0, 0, 0, 0
"BUSLVMAI43", 0.20785, 1,    128.747,  -30.8,    1.0729, 2,    128.763,  149.2,     1.073, 0, 0, 0, 0
"BUSLVMAI44", 0.20785, 1,    127.342,   89.0,    1.0612, 2,     127.37,  -91.0,    1.0614, 0, 0, 0, 0
"BUSLVMAI45", 0.20785, 1,    127.281,   88.9,    1.0607, 2,    127.295,  -91.1,    1.0608, 0, 0, 0, 0
"BUSLVMAI46", 0.20785, 1,    127.457,   89.0,    1.0621, 2,    127.473,  -91.0,    1.0623, 0, 0, 0, 0
"BUSLVMAI47", 0.20785, 1,    127.506,   89.0,    1.0626, 2,     127.52,  -91.0,    1.0627, 0, 0, 0, 0
"BUSLVMAI48", 0.20785, 1,    127.101,   88.9,    1.0592, 2,    127.122,  -91.2,    1.0594, 0, 0, 0, 0
"BUSLVMAI49", 0.20785, 1,    128.716,  -30.8,    1.0726, 2,    128.732,  149.2,    1.0728, 0, 0, 0, 0
"BUSLVMAI50", 0.20785, 1,    127.226, -150.4,    1.0602, 2,    127.288,   29.6,    1.0607, 0, 0, 0, 0
"BUSLVMAI51", 0.20785, 1,    128.009,  -31.0,    1.0667, 2,    128.026,  149.0,    1.0669, 0, 0, 0, 0
"BUSLVMAI52", 0.20785, 1,    127.513,   89.0,    1.0626, 2,    127.526,  -91.0,    1.0627, 0, 0, 0, 0
"BUSLVMAI53", 0.20785, 1,    127.498,   89.0,    1.0625, 2,    127.513,  -91.0,    1.0626, 0, 0, 0, 0
"BUSLVMAI54", 0.20785, 1,    127.094,   88.9,    1.0591, 2,     127.11,  -91.1,    1.0593, 0, 0, 0, 0
"BUSLVMAI55", 0.20785, 1,    128.757,  -30.7,     1.073, 2,    128.773,  149.2,    1.0731, 0, 0, 0, 0
"BUSLVMAI56", 0.20785, 1,    127.539,   89.1,    1.0628, 2,    127.553,  -90.9,    1.0629, 0, 0, 0, 0
"BUSLVMAI57", 0.20785, 1,     127.44,   89.0,     1.062, 2,    127.456,  -91.0,    1.0621, 0, 0, 0, 0
"BUSLVMAI58", 0.20785, 1,    127.511,   89.0,    1.0626, 2,    127.526,  -91.0,    1.0627, 0, 0, 0, 0
"BUSLVMAI59", 0.20785, 1,    128.716,  -30.8,    1.0726, 2,    128.732,  149.2,    1.0728, 0, 0, 0, 0
"BUSLVMAI60", 0.20785, 1,    128.684,  -30.8,    1.0724, 2,    128.697,  149.2,    1.0725, 0, 0, 0, 0
"BUSLVMAI61", 0.20785, 1,    127.357,  -31.4,    1.0613, 2,    127.375,  148.6,    1.0615, 0, 0, 0, 0
"BUSLVMAI62", 0.20785, 1,    128.548, -150.1,    1.0712, 2,    128.562,   29.9,    1.0713, 0, 0, 0, 0
"BUSLVMAI63", 0.20785, 1,     128.31,  -30.9,    1.0692, 2,    128.328,  149.1,    1.0694, 0, 0, 0, 0
"BUSLVMAI64", 0.20785, 1,    128.648, -150.1,    1.0721, 2,    128.662,   29.9,    1.0722, 0, 0, 0, 0
"BUSLVMAI65", 0.20785, 1,    128.702,  -30.8,    1.0725, 2,    128.717,  149.2,    1.0726, 0, 0, 0, 0
"BUSLVMAI66", 0.20785, 1,    127.503,   89.0,    1.0625, 2,    127.517,  -91.0,    1.0626, 0, 0, 0, 0
"BUSLVMAI67", 0.20785, 1,    128.129,  -31.0,    1.0677, 2,    128.146,  149.0,    1.0679, 0, 0, 0, 0
"BUSLVMAI68", 0.20785, 1,     128.33,  -30.9,    1.0694, 2,    128.343,  149.1,    1.0695, 0, 0, 0, 0
"BUSLVMAI69", 0.20785, 1,    127.506,   89.0,    1.0626, 2,    127.519,  -91.0,    1.0627, 0, 0, 0, 0
"BUSLVMAI70", 0.20785, 1,    127.069,   88.8,    1.0589, 2,    127.091,  -91.2,    1.0591, 0, 0, 0, 0
"BUSLVMAI71", 0.20785, 1,    128.524,  -30.8,     1.071, 2,    128.538,  149.2,    1.0711, 0, 0, 0, 0
"BUSLVMAI72", 0.20785, 1,    128.667,  -30.8,    1.0722, 2,    128.681,  149.2,    1.0723, 0, 0, 0, 0
"BUSLVMAI73", 0.20785, 1,    128.631,  -30.8,    1.0719, 2,    128.644,  149.2,     1.072, 0, 0, 0, 0
"BUSLVMAI74", 0.20785, 1,    128.715,  -30.8,    1.0726, 2,    128.731,  149.2,    1.0728, 0, 0, 0, 0
"BUSLVMAI75", 0.20785, 1,    128.596, -150.0,    1.0716, 2,     128.61,   30.0,    1.0718, 0, 0, 0, 0
"BUSLVMAI76", 0.20785, 1,    127.503,   89.0,    1.0625, 2,    127.516,  -91.0,    1.0626, 0, 0, 0, 0
"BUSLVMAI77", 0.20785, 1,    128.006,  -31.0,    1.0667, 2,     128.02,  149.0,    1.0668, 0, 0, 0, 0
"BUSLVMAI78", 0.20785, 1,    128.722,  -30.7,    1.0727, 2,    128.735,  149.3,    1.0728, 0, 0, 0, 0
"BUSLVMAI79", 0.20785, 1,    127.447,   89.0,    1.0621, 2,    127.461,  -91.0,    1.0622, 0, 0, 0, 0
"BUSLVMAI80", 0.20785, 1,    126.452,   88.6,    1.0538, 2,    126.476,  -91.4,     1.054, 0, 0, 0, 0
"BUSLVMAI81", 0.20785, 1,    127.502,   89.0,    1.0625, 2,    127.517,  -91.0,    1.0626, 0, 0, 0, 0
"BUSLVMAI82", 0.20785, 1,    127.555,   89.1,     1.063, 2,    127.571,  -90.9,    1.0631, 0, 0, 0, 0
"BUSLVMAI83", 0.20785, 1,    128.457,  -30.9,    1.0705, 2,    128.479,  149.1,    1.0707, 0, 0, 0, 0
"BUSLVMAI84", 0.20785, 1,     127.75,   89.2,    1.0646, 2,    127.764,  -90.8,    1.0647, 0, 0, 0, 0
"BUSLVMAI85", 0.20785, 1,    128.821, -149.9,    1.0735, 2,    128.849,   30.1,    1.0737, 0, 0, 0, 0
"BUSLVMAI86", 0.20785, 1,    128.542,  -30.8,    1.0712, 2,     128.58,  149.2,    1.0715, 0, 0, 0, 0
"BUSLVMAI87", 0.20785, 1,     128.92,  -30.6,    1.0743, 2,    128.964,  149.4,    1.0747, 0, 0, 0, 0
"BUSLVMAI88", 0.20785, 1,    127.535,   89.0,    1.0628, 2,    127.548,  -91.0,    1.0629, 0, 0, 0, 0
"BUSLVMAI89", 0.20785, 1,    127.503,   89.0,    1.0625, 2,    127.516,  -91.0,    1.0626, 0, 0, 0, 0
"BUSLVMAI90", 0.20785, 1,      127.1,   88.9,    1.0592, 2,    127.116,  -91.1,    1.0593, 0, 0, 0, 0
"BUSLVMAI91", 0.20785, 1,    127.511,   89.0,    1.0626, 2,    127.526,  -91.0,    1.0627, 0, 0, 0, 0
"BUSLVMAI92", 0.20785, 1,    128.273,  -30.9,    1.0689, 2,    128.297,  149.1,    1.0691, 0, 0, 0, 0
"BUSLVMAI93", 0.20785, 1,    127.374,   89.1,    1.0615, 2,     127.39,  -90.9,    1.0616, 0, 0, 0, 0
"BUSLVMAI94", 0.20785, 1,    127.637,   89.1,    1.0636, 2,    127.652,  -90.9,    1.0638, 0, 0, 0, 0
"BUSLVMAI95", 0.20785, 1,     127.44,   89.0,     1.062, 2,    127.456,  -91.0,    1.0621, 0, 0, 0, 0
"BUSLVMAI96", 0.20785, 1,    127.521,   89.0,    1.0627, 2,    127.535,  -91.0,    1.0628, 0, 0, 0, 0
"BUSLVMAI97", 0.20785, 1,    128.737, -150.0,    1.0728, 2,    128.752,   30.0,    1.0729, 0, 0, 0, 0
"BUSLVMAI98", 0.20785, 1,    128.737, -150.0,    1.0728, 2,    128.752,   30.0,    1.0729, 0, 0, 0, 0
"BUSLVMAI99", 0.20785, 1,    127.526,   89.0,    1.0627, 2,     127.54,  -91.0,    1.0628, 0, 0, 0, 0
"BUSLVMAI100", 0.20785, 1,    127.536,   89.0,    1.0628, 2,     127.55,  -91.0,    1.0629, 0, 0, 0, 0
"BUSLVMAI101", 0.20785, 1,    127.438,   89.0,     1.062, 2,    127.454,  -91.0,    1.0621, 0, 0, 0, 0
"BUSLVMAI102", 0.20785, 1,      127.5,   89.0,    1.0625, 2,    127.516,  -91.0,    1.0626, 0, 0, 0, 0
"BUSLVMAI103", 0.20785, 1,    127.414,   89.0,    1.0618, 2,     127.43,  -91.0,    1.0619, 0, 0, 0, 0
"BUSLVMAI104", 0.20785, 1,    127.393,   89.0,    1.0616, 2,    127.407,  -91.0,    1.0617, 0, 0, 0, 0
"BUSLVMAI105", 0.20785, 1,    127.228,   88.9,    1.0602, 2,    127.243,  -91.1,    1.0604, 0, 0, 0, 0
"BUSLVMAI106", 0.20785, 1,    128.682,  -30.8,    1.0724, 2,    128.695,  149.2,    1.0725, 0, 0, 0, 0
"BUSLVMAI107", 0.20785, 1,    127.506,   89.0,    1.0626, 2,    127.521,  -91.0,    1.0627, 0, 0, 0, 0
"BUSLVMAI108", 0.20785, 1,    127.451,   89.0,    1.0621, 2,    127.465,  -91.0,    1.0622, 0, 0, 0, 0
"BUSLVMAI109", 0.20785, 1,     128.43,  -30.8,    1.0702, 2,    128.479,  149.2,    1.0707, 0, 0, 0, 0
"BUSLVMAI110", 0.20785, 1,    128.459,  -30.8,    1.0705, 2,    128.483,  149.2,    1.0707, 0, 0, 0, 0
"BUSLVMAI111", 0.20785, 1,    128.494,  -30.8,    1.0708, 2,     128.51,  149.2,    1.0709, 0, 0, 0, 0
"BUSLVMAI112", 0.20785, 1,    128.602,  -30.8,    1.0717, 2,    128.618,  149.2,    1.0718, 0, 0, 0, 0
"BUSLVMAI113", 0.20785, 1,    128.738, -150.0,    1.0728, 2,    128.754,   30.0,    1.0729, 0, 0, 0, 0
"BUSLVMAI114", 0.20785, 1,    127.008,  -31.2,    1.0584, 2,    127.023,  148.8,    1.0585, 0, 0, 0, 0
"BUSLVMAI115", 0.20785, 1,    128.495,  -30.8,    1.0708, 2,    128.508,  149.2,    1.0709, 0, 0, 0, 0
"BUSLVMAI116", 0.20785, 1,    127.418,   89.1,    1.0618, 2,    127.431,  -90.9,    1.0619, 0, 0, 0, 0
"BUSLVMAI117", 0.20785, 1,    128.361,  -30.8,    1.0697, 2,    128.383,  149.2,    1.0699, 0, 0, 0, 0
"BUSLVMAI118", 0.20785, 1,    128.956,  -30.6,    1.0746, 2,    128.973,  149.4,    1.0748, 0, 0, 0, 0
"BUSLVMAI119", 0.20785, 1,    127.225,   88.9,    1.0602, 2,    127.239,  -91.1,    1.0603, 0, 0, 0, 0
"BUSLVMAI120", 0.20785, 1,    128.493,  -30.8,    1.0708, 2,    128.508,  149.2,    1.0709, 0, 0, 0, 0
"BUSLVMAI121", 0.20785, 1,    128.758, -150.0,     1.073, 2,    128.774,   30.0,    1.0731, 0, 0, 0, 0
"BUSLVMAI122", 0.20785, 1,    127.407,   89.1,    1.0617, 2,    127.423,  -90.9,    1.0619, 0, 0, 0, 0
"BUSLVMAI123", 0.20785, 1,    128.746, -150.0,    1.0729, 2,     128.76,   30.0,     1.073, 0, 0, 0, 0
"BUSLVMAI124", 0.20785, 1,    127.026,   88.9,    1.0586, 2,    127.064,  -91.1,    1.0589, 0, 0, 0, 0
"BUSLVMAI125", 0.20785, 1,    126.599,   88.8,     1.055, 2,    126.614,  -91.2,    1.0551, 0, 0, 0, 0
"BUSLVMAI126", 0.20785, 1,    128.755, -150.0,     1.073, 2,     128.77,   30.0,    1.0731, 0, 0, 0, 0
"BUSLVMAI127", 0.20785, 1,    127.411,   89.1,    1.0618, 2,    127.425,  -90.9,    1.0619, 0, 0, 0, 0
"BUSLVMAI128", 0.20785, 1,    129.098, -149.7,    1.0758, 2,    129.119,   30.3,     1.076, 0, 0, 0, 0
"BUSLVMAI129", 0.20785, 1,    128.494,  -30.8,    1.0708, 2,    128.507,  149.2,    1.0709, 0, 0, 0, 0
"BUSLVMAI130", 0.20785, 1,    128.635,  -30.8,     1.072, 2,    128.651,  149.2,    1.0721, 0, 0, 0, 0
"BUSLVMAI131", 0.20785, 1,    127.578,  -31.1,    1.0632, 2,    127.619,  148.9,    1.0635, 0, 0, 0, 0
"BUSLVMAI132", 0.20785, 1,    128.491,  -30.8,    1.0708, 2,    128.504,  149.2,    1.0709, 0, 0, 0, 0
"BUSLVMAI133", 0.20785, 1,    127.421,   89.1,    1.0618, 2,    127.439,  -91.0,     1.062, 0, 0, 0, 0
"BUSLVMAI134", 0.20785, 1,    127.157,   88.9,    1.0596, 2,    127.171,  -91.1,    1.0598, 0, 0, 0, 0
"BUSLVMAI135", 0.20785, 1,    127.381,   89.0,    1.0615, 2,    127.397,  -91.0,    1.0616, 0, 0, 0, 0
"BUSLVMAI136", 0.20785, 1,    128.233,  -30.9,    1.0686, 2,     128.26,  149.1,    1.0688, 0, 0, 0, 0
"BUSLVMAI137", 0.20785, 1,    128.757, -150.0,     1.073, 2,     128.77,   30.0,    1.0731, 0, 0, 0, 0
"BUSLVMAI138", 0.20785, 1,    128.497, -150.1,    1.0708, 2,    128.518,   29.9,     1.071, 0, 0, 0, 0
"BUSLVMAI139", 0.20785, 1,    127.974, -150.3,    1.0664, 2,    127.992,   29.7,    1.0666, 0, 0, 0, 0
"BUSLVMAI140", 0.20785, 1,    128.333,  -30.9,    1.0694, 2,    128.349,  149.1,    1.0696, 0, 0, 0, 0
"BUSLVMAI141", 0.20785, 1,    128.756, -150.0,     1.073, 2,     128.77,   30.0,    1.0731, 0, 0, 0, 0
"BUSLVMAI142", 0.20785, 1,    128.418, -150.2,    1.0702, 2,    128.433,   29.8,    1.0703, 0, 0, 0, 0
"BUSLVMAI143", 0.20785, 1,    128.657, -150.1,    1.0721, 2,    128.673,   29.9,    1.0723, 0, 0, 0, 0
"BUSLVMAI144", 0.20785, 1,     127.41,   89.1,    1.0617, 2,    127.425,  -90.9,    1.0619, 0, 0, 0, 0
"BUSLVMAI145", 0.20785, 1,    128.551,  -30.8,    1.0713, 2,    128.567,  149.2,    1.0714, 0, 0, 0, 0
"BUSLVMAI146", 0.20785, 1,    128.734, -150.0,    1.0728, 2,    128.748,   30.0,    1.0729, 0, 0, 0, 0
"BUSLVMAI147", 0.20785, 1,    128.435,  -30.7,    1.0703, 2,    128.449,  149.3,    1.0704, 0, 0, 0, 0
"BUSLVMAI148", 0.20785, 1,     127.31,   89.0,    1.0609, 2,    127.325,  -91.0,     1.061, 0, 0, 0, 0
"BUSLVMAI149", 0.20785, 1,    128.713, -150.0,    1.0726, 2,    128.726,   30.0,    1.0727, 0, 0, 0, 0
"BUSLVMAI150", 0.20785, 1,     127.72,  -31.2,    1.0643, 2,    127.743,  148.8,    1.0645, 0, 0, 0, 0
"BUSLVMAI151", 0.20785, 1,    128.221, -150.0,    1.0685, 2,    128.234,   30.0,    1.0686, 0, 0, 0, 0
"BUSLVMAI152", 0.20785, 1,    128.483,  -30.8,    1.0707, 2,    128.498,  149.2,    1.0708, 0, 0, 0, 0
"BUSLVMAI153", 0.20785, 1,    126.488,   88.7,    1.0541, 2,    126.504,  -91.3,    1.0542, 0, 0, 0, 0
"BUSLVMAI154", 0.20785, 1,    127.415,   89.1,    1.0618, 2,    127.431,  -91.0,    1.0619, 0, 0, 0, 0
"BUSLVMAI155", 0.20785, 1,    128.389,  -30.8,    1.0699, 2,    128.403,  149.1,      1.07, 0, 0, 0, 0
"BUSLVMAI156", 0.20785, 1,    128.499,  -30.8,    1.0708, 2,    128.512,  149.2,    1.0709, 0, 0, 0, 0
"BUSLVMAI157", 0.20785, 1,    127.915,  -31.0,     1.066, 2,    127.932,  149.0,    1.0661, 0, 0, 0, 0
"BUSLVMAI158", 0.20785, 1,    128.705, -150.1,    1.0725, 2,    128.718,   29.9,    1.0726, 0, 0, 0, 0
"BUSLVMAI159", 0.20785, 1,    128.745, -150.0,    1.0729, 2,    128.758,   30.0,     1.073, 0, 0, 0, 0
"BUSLVMAI160", 0.20785, 1,    128.347,  -30.8,    1.0696, 2,    128.367,  149.2,    1.0697, 0, 0, 0, 0
"BUSLVMAI161", 0.20785, 1,    128.303,  -30.9,    1.0692, 2,    128.327,  149.1,    1.0694, 0, 0, 0, 0
"BUSLVMAI162", 0.20785, 1,     128.27,  -30.9,    1.0689, 2,    128.286,  149.1,     1.069, 0, 0, 0, 0
"BUSLVMAI163", 0.20785, 1,    128.483,  -30.8,    1.0707, 2,    128.498,  149.2,    1.0708, 0, 0, 0, 0
"BUSLVMAI164", 0.20785, 1,     128.66,  -30.8,    1.0722, 2,    128.673,  149.2,    1.0723, 0, 0, 0, 0
"BUSLVMAI165", 0.20785, 1,    127.848,  -31.0,    1.0654, 2,    127.888,  149.0,    1.0657, 0, 0, 0, 0
"BUSLVMAI166", 0.20785, 1,    128.265,  -30.9,    1.0689, 2,    128.289,  149.1,    1.0691, 0, 0, 0, 0
"BUSLVMAI167", 0.20785, 1,    127.444,   89.1,     1.062, 2,    127.475,  -90.9,    1.0623, 0, 0, 0, 0
"BUSLVMAI168", 0.20785, 1,    127.428,   89.1,    1.0619, 2,    127.442,  -90.9,     1.062, 0, 0, 0, 0
"BUSLVMAI169", 0.20785, 1,    126.631,  -31.1,    1.0553, 2,    126.648,  148.9,    1.0554, 0, 0, 0, 0
"BUSLVMAI170", 0.20785, 1,    128.489,  -30.8,    1.0707, 2,    128.503,  149.2,    1.0709, 0, 0, 0, 0
"BUSLVMAI171", 0.20785, 1,    127.726,  -31.0,    1.0644, 2,     127.85,  149.0,    1.0654, 0, 0, 0, 0
"BUSLVMAI172", 0.20785, 1,    127.525,   89.1,    1.0627, 2,     127.54,  -90.9,    1.0628, 0, 0, 0, 0
"BUSLVMAI173", 0.20785, 1,    127.406,   89.1,    1.0617, 2,    127.421,  -90.9,    1.0618, 0, 0, 0, 0
"BUSLVMAI174", 0.20785, 1,    128.474,  -30.8,    1.0706, 2,    128.497,  149.2,    1.0708, 0, 0, 0, 0
"BUSLVMAI175", 0.20785, 1,    128.116,  -31.0,    1.0676, 2,    128.131,  149.0,    1.0678, 0, 0, 0, 0
"BUSLVMAI176", 0.20785, 1,     127.34,   89.0,    1.0612, 2,    127.353,  -91.0,    1.0613, 0, 0, 0, 0
"BUSLVMAI177", 0.20785, 1,    127.507,   89.1,    1.0626, 2,     127.52,  -90.9,    1.0627, 0, 0, 0, 0
"BUSLVMAI178", 0.20785, 1,    128.647, -150.1,    1.0721, 2,    128.661,   29.9,    1.0722, 0, 0, 0, 0
"BUSLVMAI179", 0.20785, 1,    128.594, -150.1,    1.0716, 2,    128.608,   29.9,    1.0717, 0, 0, 0, 0
"BUSLVMAI180", 0.20785, 1,    128.498,  -30.8,    1.0708, 2,    128.512,  149.2,    1.0709, 0, 0, 0, 0
"BUSLVMAI181", 0.20785, 1,    128.488,  -30.8,    1.0707, 2,    128.502,  149.2,    1.0709, 0, 0, 0, 0
"BUSLVMAI182", 0.20785, 1,    128.263,  -30.8,    1.0689, 2,    128.348,  149.2,    1.0696, 0, 0, 0, 0
"BUSLVMAI183", 0.20785, 1,    127.353,   89.0,    1.0613, 2,    127.367,  -91.0,    1.0614, 0, 0, 0, 0
"BUSLVMAI184", 0.20785, 1,    128.636,  -30.8,     1.072, 2,    128.649,  149.2,    1.0721, 0, 0, 0, 0
"BUSLVMAI185", 0.20785, 1,    128.408, -150.1,    1.0701, 2,    128.421,   29.9,    1.0702, 0, 0, 0, 0
"BUSLVMAI186", 0.20785, 1,    127.418,   89.0,    1.0618, 2,    127.433,  -91.0,    1.0619, 0, 0, 0, 0
"BUSLVMAI187", 0.20785, 1,    127.362,   89.0,    1.0614, 2,    127.375,  -91.0,    1.0615, 0, 0, 0, 0
"BUSLVMAI188", 0.20785, 1,    128.738, -150.0,    1.0728, 2,    128.754,   30.0,     1.073, 0, 0, 0, 0
"BUSLVMAI189", 0.20785, 1,    128.494,  -30.8,    1.0708, 2,     128.51,  149.2,    1.0709, 0, 0, 0, 0
"BUSLVMAI190", 0.20785, 1,     128.74, -150.0,    1.0728, 2,    128.756,   30.0,     1.073, 0, 0, 0, 0
"BUSLVMAI191", 0.20785, 1,    127.415,   89.1,    1.0618, 2,    127.431,  -91.0,    1.0619, 0, 0, 0, 0
"BUSLVMAI192", 0.20785, 1,    128.476,  -30.8,    1.0706, 2,    128.493,  149.2,    1.0708, 0, 0, 0, 0
"BUSLVMAI193", 0.20785, 1,    128.488,  -30.8,    1.0707, 2,    128.505,  149.2,    1.0709, 0, 0, 0, 0
"BUSLVMAI194", 0.20785, 1,    127.349,   89.0,    1.0612, 2,    127.364,  -91.0,    1.0614, 0, 0, 0, 0
"BUSLVMAI195", 0.20785, 1,    127.417,   89.1,    1.0618, 2,    127.433,  -91.0,    1.0619, 0, 0, 0, 0
"BUSLVMAI196", 0.20785, 1,    128.736, -150.0,    1.0728, 2,    128.752,   30.0,    1.0729, 0, 0, 0, 0
"BUSLVMAI197", 0.20785, 1,    128.568, -150.1,    1.0714, 2,    128.583,   29.9,    1.0715, 0, 0, 0, 0
"BUSLVMAI198", 0.20785, 1,    128.739, -150.0,    1.0728, 2,    128.754,   30.0,     1.073, 0, 0, 0, 0
"BUSLVMAI199", 0.20785, 1,    128.738, -150.0,    1.0728, 2,    128.754,   30.0,     1.073, 0, 0, 0, 0
"BUSLVMAI200", 0.20785, 1,    128.477,  -30.8,    1.0706, 2,    128.493,  149.2,    1.0708, 0, 0, 0, 0
...
